FoamFile
{
    version     2.0;
    format      ascii;
    class       dictionary;
    object      controlDict;
}
application     hisa;
startFrom       startTime;
startTime       0;
stopAt          endTime;
endTime         3000;
deltaT          1;
writeControl    timeStep;
writeInterval   500;
purgeWrite      0;
adjustTimeStep  off;
maxCo           20;
functions       {};
